spe
hsa
ptr
pps
ggo
pon
nle
mcc
mcf
csab
caty
rro
rbb
tfn
cjc
sbq
mmur
mmu
mcal
mpah
rno
mcoc
mun
cge
pleu
ngi
hgl
ccan
ocu
tup
cfa
vvp
aml
umr
uah
oro
elk
mpuf
eju
fca
ptg
ppad
aju
hhv
bta
bom
biu
bbub
chx
oas
oda
ssc
cfr
cdk
bacu
lve
oor
dle
pcad
ecb
epz
eai
myb
myd
mmyo
mna
hai
dro
shon
ajm
mmf
pale
ray
mjv
lav
tmu
mdo
shr
pcw
oaa
gga
mgp
cjo
nmel
apla
acyg
tgu
lsr
scan
pmoa
gfr
fab
phi
pmaj
ccae
ccw
etl
fpg
fch
clv
egz
nni
acun
padl
aam
asn
amj
pss
cmy
cpic
tst
acs
pvt
pbi
pmur
tsr
pgut
pmua
zvi
gja
xla
xtr
npr
dre
srx
sanh
sgh
ccar
caua
ipu
phyp
amex
eee
tru
tng
lco
ncc
ely
sluc
msam
mze
onl
oau
ola
xma
xco
pret
cvg
nfu
kmr
alim
aoce
csem
pov
lcf
sdu
slal
xgl
hcq
bpec
malb
sasa
otw
omy
salp
els
sfm
pki
loc
pspa
arut
lcm
cmk
rtp
bfo
cin
sclv
spu
aplc
sko
dme
der
dse
dsi
dya
dan
dsr
dpo
dpe
dmn
dwi
dgr
dmo
daz
dnv
dhe
dvi
mde
lcq
aga
acoz
aag
aalb
cqu
cpii
ame
bim
bter
ccal
obb
soc
mpha
aec
acep
pbar
vem
hst
dqu
cfo
lhu
pgc
obo
pcf
nvi
csol
mdl
tca
dpa
atd
nvl
bmor
bman
dpl
pmac
prap
zce
haw
tnl
pxy
api
dnx
ags
rmd
btab
dci
clec
nlu
phu
zne
fcd
dpx
pvm
eaf
isc
dsv
tut
dpte
cscu
ptep
cel
cbr
bmy
loa
nai
tsp
hro
lgi
pcan
crg
myi
obi
lak
smm
shx
ovi
egl
nve
epa
adf
amil
pdam
spis
dgt
hmg
tad
aqu
ath
aly
crb
csat
eus
brp
bna
boe
rsz
thj
cpap
cit
cic
tcc
gra
ghi
gab
dzi
egr
gmx
gsj
pvu
vra
var
vun
ccaj
aprc
mtr
cam
lja
adu
aip
ahf
lang
fve
rcn
pper
pmum
pavi
pdul
mdm
pxb
zju
mnt
csv
cmo
bhj
mcha
cmax
cmos
cpep
rcu
jcu
hbr
mesc
pop
peu
palz
jre
qsu
qlo
twl
vvi
vri
sly
spen
sot
cann
nta
nsy
nto
nau
ini
sind
oeu
egt
han
lsv
ccav
dcr
bvg
soe
cqi
nnu
psom
osa
dosa
obr
bdi
ats
tdc
sbi
zma
sita
pvir
pda
egu
mus
dct
peq
aof
atr
smo
ppp
cre
vcn
mng
csl
cvr
apro
olu
ota
bpg
mis
mpp
cme
gsl
ccp
sce
ago
erc
kla
kmx
lth
vpo
zro
cgr
ncs
ndi
tpf
tbl
tdl
tgb
kaf
zmk
ppa
dha
pic
pgu
spaa
lel
cal
ctp
cot
cdu
cten
yli
clu
clus
caur
slb
pkz
bnn
bbrx
ncr
nte
smp
pan
ttt
mtm
cthr
mgr
tmn
ssck
fgr
fpu
fvr
fox
nhe
tre
trr
maw
maj
cmt
plj
val
vda
cfj
sapo
ela
pfy
ssl
bfu
mbe
psco
glz
ani
afm
act
nfi
aor
ang
afv
pcs
pdp
tmf
trg
cim
cpw
pbl
pbn
ure
abe
tve
aje
bgh
pno
pte
bze
bsc
bor
aalt
ztr
pfj
bcom
npa
tml
spo
cne
cnb
cgi
tms
tasa
ppl
tvs
dsq
pco
shs
hir
psq
adl
fme
gtr
lbc
mpr
mrr
cci
scm
abp
abv
cput
sla
wse
wic
uma
pfp
mgl
mrt
msym
pgr
mlr
ecu
ein
ehe
ero
nce
mbr
sre
ddi
dpp
dfa
ehi
edi
eiv
acan
pfa
pfd
pfh
pyo
pcb
pbe
pkn
pvx
pcy
tan
tpv
tot
beq
bbo
bmic
cpv
cho
tgo
tet
ptm
smin
pti
fcy
tps
ngd
aaf
pif
psoj
spar
ehx
gtt
tbr
tbg
tcr
lma
lif
ldo
lmi
lbz
lpan
ngr
tva
gla
